*----------------------------------------------------------------------------
* Description	: Cell LVS schematic netlists for cp65npksdst
*		  (Common Platform 65nm LP LowK Std Vt High Density Tapless Library)
* Date		: $Date: 2008/11/26 05:38:57 $
* Copyright	: 1997-2008 by Virage Logic Corporation
* Revision	: Version $Revision: 1.3 $
*----------------------------------------------------------------------------
* Global node definitions.
*----------------------------------------------------------------------------
*.GLOBAL VDD VSS


*----------------------------------------------------------------------------
* Cell subcircuit definitions.
*----------------------------------------------------------------------------
*-----------------------------------------------------------------------
*      Cell        : SEN_ADDF_D_1
*      Description : "Full adder"
*      Equation    : S=(A^B)^CI:CO=(A&B)|(A&CI)|(B&CI)
*      Version     : 5.6
*      Created     : 2007/10/29 19:10:27
*
.SUBCKT SEN_ADDF_D_1 S CO  A B CI
MNI6 N3 I6 VSS VSS nfet L=0.060u W=0.220u M=1
MNI4 I1 I4 N3 VSS nfet L=0.060u W=0.220u M=1
MNI5 I6 I5 VSS VSS nfet L=0.060u W=0.220u M=1
MNCINB I3 CIN I99 VSS nfet L=0.060u W=0.220u M=1
MNCIB I2 CI I99 VSS nfet L=0.060u W=0.220u M=1
MNI2 I3 I2 VSS VSS nfet L=0.060u W=0.240u M=1
MNI1 I2 I1 VSS VSS nfet L=0.060u W=0.240u M=1
MNB3 I5 B VSS VSS nfet L=0.060u W=0.220u M=1
MNB2 N1 B VSS VSS nfet L=0.060u W=0.240u M=1
MNA2 I4 A N1 VSS nfet L=0.060u W=0.240u M=1
MNCI CIN CI VSS VSS nfet L=0.060u W=0.220u M=1
MNA3 I5 A VSS VSS nfet L=0.060u W=0.220u M=1
MN98 CO I98 VSS VSS nfet L=0.060u W=0.480u M=1
MN99 S I99 VSS VSS nfet L=0.060u W=0.480u M=1
MNCIA I5 CI I98 VSS nfet L=0.060u W=0.220u M=1
MNCINA I4 CIN I98 VSS nfet L=0.060u W=0.220u M=1
MPI6 I1 I6 VDD VDD pfet L=0.060u W=0.205u M=1
MPI4 I1 I4 VDD VDD pfet L=0.060u W=0.205u M=1
MPI5 I6 I5 VDD VDD pfet L=0.060u W=0.245u M=1
MPCIB I99 CI I3 VDD pfet L=0.060u W=0.245u M=1
MPCINB I99 CIN I2 VDD pfet L=0.060u W=0.245u M=1
MPCIA I98 CI I4 VDD pfet L=0.060u W=0.245u M=1
MPI2 I3 I2 VDD VDD pfet L=0.060u W=0.300u M=1
MPI1 I2 I1 VDD VDD pfet L=0.060u W=0.300u M=1
MPB3 I5 B N2 VDD pfet L=0.060u W=0.300u M=1
MPA3 N2 A VDD VDD pfet L=0.060u W=0.300u M=1
MPB2 I4 B VDD VDD pfet L=0.060u W=0.215u M=1
MPA2 I4 A VDD VDD pfet L=0.060u W=0.215u M=1
MPCI CIN CI VDD VDD pfet L=0.060u W=0.245u M=1
MP98 CO I98 VDD VDD pfet L=0.060u W=0.600u M=1
MP99 S I99 VDD VDD pfet L=0.060u W=0.600u M=1
MPCINA I98 CIN I5 VDD pfet L=0.060u W=0.245u M=1
.ENDS
*-----------------------------------------------------------------------
*      Cell        : SEN_ADDF_D_2
*      Description : "Full adder"
*      Equation    : S=(A^B)^CI:CO=(A&B)|(A&CI)|(B&CI)
*      Version     : 5.6
*      Created     : 2007/10/29 19:10:27
*
.SUBCKT SEN_ADDF_D_2 S CO  A B CI
MNI6 N3 I6 VSS VSS nfet L=0.060u W=0.240u M=1
MNI4 I1 I4 N3 VSS nfet L=0.060u W=0.240u M=1
MNI5 I6 I5 VSS VSS nfet L=0.060u W=0.220u M=1
MNCINB I3 CIN I99 VSS nfet L=0.060u W=0.220u M=1
MNCIB I2 CI I99 VSS nfet L=0.060u W=0.220u M=1
MNI2 I3 I2 VSS VSS nfet L=0.060u W=0.480u M=1
MNI1 I2 I1 VSS VSS nfet L=0.060u W=0.480u M=1
MNB3 I5 B VSS VSS nfet L=0.060u W=0.240u M=1
MNB2 N1 B VSS VSS nfet L=0.060u W=0.480u M=1
MNA2 I4 A N1 VSS nfet L=0.060u W=0.480u M=1
MNCI CIN CI VSS VSS nfet L=0.060u W=0.240u M=1
MNA3 I5 A VSS VSS nfet L=0.060u W=0.240u M=1
MN98 CO I98 VSS VSS nfet L=0.060u W=0.480u M=2
MN99 S I99 VSS VSS nfet L=0.060u W=0.480u M=2
MNCIA I5 CI I98 VSS nfet L=0.060u W=0.240u M=1
MNCINA I4 CIN I98 VSS nfet L=0.060u W=0.240u M=1
MPI6 I1 I6 VDD VDD pfet L=0.060u W=0.230u M=1
MPI4 I1 I4 VDD VDD pfet L=0.060u W=0.230u M=1
MPI5 I6 I5 VDD VDD pfet L=0.060u W=0.245u M=1
MPCIB I99 CI I3 VDD pfet L=0.060u W=0.275u M=1
MPCINB I99 CIN I2 VDD pfet L=0.060u W=0.275u M=1
MPCIA I98 CI I4 VDD pfet L=0.060u W=0.275u M=1
MPI2 I3 I2 VDD VDD pfet L=0.060u W=0.600u M=1
MPI1 I2 I1 VDD VDD pfet L=0.060u W=0.600u M=1
MPB3 I5 B N2 VDD pfet L=0.060u W=0.600u M=1
MPA3 N2 A VDD VDD pfet L=0.060u W=0.600u M=1
MPB2 I4 B VDD VDD pfet L=0.060u W=0.435u M=1
MPA2 I4 A VDD VDD pfet L=0.060u W=0.435u M=1
MPCI CIN CI VDD VDD pfet L=0.060u W=0.300u M=1
MP98 CO I98 VDD VDD pfet L=0.060u W=0.600u M=2
MP99 S I99 VDD VDD pfet L=0.060u W=0.600u M=2
MPCINA I98 CIN I5 VDD pfet L=0.060u W=0.275u M=1
.ENDS
*-----------------------------------------------------------------------
*      Cell        : SEN_ADDF_D_4
*      Description : "Full adder"
*      Equation    : S=(A^B)^CI:CO=(A&B)|(A&CI)|(B&CI)
*      Version     : 5.6
*      Created     : 2007/10/29 19:10:27
*
.SUBCKT SEN_ADDF_D_4 S CO  A B CI
MNI6 N3 I6 VSS VSS nfet L=0.060u W=0.480u M=1
MNI4 I1 I4 N3 VSS nfet L=0.060u W=0.480u M=1
MNI5 I6 I5 VSS VSS nfet L=0.060u W=0.240u M=1
MNCINB I3 CIN I99 VSS nfet L=0.060u W=0.435u M=1
MNCIB I2 CI I99 VSS nfet L=0.060u W=0.435u M=1
MNI2 I3 I2 VSS VSS nfet L=0.060u W=0.480u M=2
MNI1 I2 I1 VSS VSS nfet L=0.060u W=0.480u M=2
MNB3 I5 B VSS VSS nfet L=0.060u W=0.480u M=1
MNB2 N1 B VSS VSS nfet L=0.060u W=0.480u M=2
MNA2 I4 A N1 VSS nfet L=0.060u W=0.480u M=2
MNCI CIN CI VSS VSS nfet L=0.060u W=0.480u M=1
MNA3 I5 A VSS VSS nfet L=0.060u W=0.480u M=1
MN98 CO I98 VSS VSS nfet L=0.060u W=0.480u M=4
MN99 S I99 VSS VSS nfet L=0.060u W=0.480u M=4
MNCIA I5 CI I98 VSS nfet L=0.060u W=0.435u M=1
MNCINA I4 CIN I98 VSS nfet L=0.060u W=0.435u M=1
MPI6 I1 I6 VDD VDD pfet L=0.060u W=0.460u M=1
MPI4 I1 I4 VDD VDD pfet L=0.060u W=0.460u M=1
MPI5 I6 I5 VDD VDD pfet L=0.060u W=0.300u M=1
MPCIB I99 CI I3 VDD pfet L=0.060u W=0.550u M=1
MPCINB I99 CIN I2 VDD pfet L=0.060u W=0.550u M=1
MPCIA I98 CI I4 VDD pfet L=0.060u W=0.550u M=1
MPI2 I3 I2 VDD VDD pfet L=0.060u W=0.600u M=2
MPI1 I2 I1 VDD VDD pfet L=0.060u W=0.600u M=2
MPB3 I5 B N2 VDD pfet L=0.060u W=0.600u M=2
MPA3 N2 A VDD VDD pfet L=0.060u W=0.600u M=2
MPB2 I4 B VDD VDD pfet L=0.060u W=0.435u M=2
MPA2 I4 A VDD VDD pfet L=0.060u W=0.435u M=2
MPCI CIN CI VDD VDD pfet L=0.060u W=0.600u M=1
MP98 CO I98 VDD VDD pfet L=0.060u W=0.600u M=4
MP99 S I99 VDD VDD pfet L=0.060u W=0.600u M=4
MPCINA I98 CIN I5 VDD pfet L=0.060u W=0.550u M=1
.ENDS
*-----------------------------------------------------------------------
*      Cell        : SEN_ADDF_D_6
*      Description : "Full adder"
*      Equation    : S=(A^B)^CI:CO=(A&B)|(A&CI)|(B&CI)
*      Version     : 5.6
*      Created     : 2007/10/29 19:10:27
*
.SUBCKT SEN_ADDF_D_6 S CO  A B CI
MNI6 N3 I6 VSS VSS nfet L=0.060u W=0.355u M=2
MNI4 I1 I4 N3 VSS nfet L=0.060u W=0.355u M=2
MNI5 I6 I5 VSS VSS nfet L=0.060u W=0.355u M=1
MNCINB I3 CIN I99 VSS nfet L=0.060u W=0.325u M=2
MNCIB I2 CI I99 VSS nfet L=0.060u W=0.325u M=2
MNI2 I3 I2 VSS VSS nfet L=0.060u W=0.480u M=3
MNI1 I2 I1 VSS VSS nfet L=0.060u W=0.480u M=3
MNB3 I5 B VSS VSS nfet L=0.060u W=0.355u M=2
MNB2 N1 B VSS VSS nfet L=0.060u W=0.480u M=3
MNA2 I4 A N1 VSS nfet L=0.060u W=0.480u M=3
MNCI CIN CI VSS VSS nfet L=0.060u W=0.355u M=2
MNA3 I5 A VSS VSS nfet L=0.060u W=0.355u M=2
MN98 CO I98 VSS VSS nfet L=0.060u W=0.480u M=6
MN99 S I99 VSS VSS nfet L=0.060u W=0.480u M=6
MNCIA I5 CI I98 VSS nfet L=0.060u W=0.325u M=2
MNCINA I4 CIN I98 VSS nfet L=0.060u W=0.325u M=2
MPI6 I1 I6 VDD VDD pfet L=0.060u W=0.345u M=2
MPI4 I1 I4 VDD VDD pfet L=0.060u W=0.345u M=2
MPI5 I6 I5 VDD VDD pfet L=0.060u W=0.445u M=1
MPCIB I99 CI I3 VDD pfet L=0.060u W=0.410u M=2
MPCINB I99 CIN I2 VDD pfet L=0.060u W=0.410u M=2
MPCIA I98 CI I4 VDD pfet L=0.060u W=0.410u M=2
MPI2 I3 I2 VDD VDD pfet L=0.060u W=0.600u M=3
MPI1 I2 I1 VDD VDD pfet L=0.060u W=0.600u M=3
MPB3 I5 B N2 VDD pfet L=0.060u W=0.600u M=3
MPA3 N2 A VDD VDD pfet L=0.060u W=0.600u M=3
MPB2 I4 B VDD VDD pfet L=0.060u W=0.600u M=2
MPA2 I4 A VDD VDD pfet L=0.060u W=0.600u M=2
MPCI CIN CI VDD VDD pfet L=0.060u W=0.445u M=2
MP98 CO I98 VDD VDD pfet L=0.060u W=0.600u M=6
MP99 S I99 VDD VDD pfet L=0.060u W=0.600u M=6
MPCINA I98 CIN I5 VDD pfet L=0.060u W=0.410u M=2
.ENDS
*-----------------------------------------------------------------------
*      Cell        : SEN_ADDF_0P5
*      Description : "Full adder"
*      Equation    : S=(A^B)^CI:CO=(A&B)|(A&CI)|(B&CI)
*      Version     : 5.6
*      Created     : 2007/10/29 19:10:27
*
.SUBCKT SEN_ADDF_0P5 S CO  A B CI
MPI2 S I2 VDD VDD pfet L=0.060u W=0.300u M=1
MPI1A CO I1 VDD VDD pfet L=0.060u W=0.300u M=1
MPCI3 I2 CI N1N549 VDD pfet L=0.060u W=0.305u M=1
MPA3 N1N549 A N1N547 VDD pfet L=0.060u W=0.305u M=1
MPB3 N1N547 B VDD VDD pfet L=0.060u W=0.305u M=1
MPI1 I2 I1 N1N476 VDD pfet L=0.060u W=0.320u M=1
MPCI2 N1N476 CI VDD VDD pfet L=0.060u W=0.320u M=1
MPB2 N1N476 B VDD VDD pfet L=0.060u W=0.320u M=1
MPA2 N1N476 A VDD VDD pfet L=0.060u W=0.320u M=1
MPA1 I1 A N1N518 VDD pfet L=0.060u W=0.245u M=1
MPB1 N1N518 B VDD VDD pfet L=0.060u W=0.245u M=1
MPCI I1 CI N1N327 VDD pfet L=0.060u W=0.245u M=1
MPA N1N327 A VDD VDD pfet L=0.060u W=0.245u M=1
MPB N1N327 B VDD VDD pfet L=0.060u W=0.245u M=1
MNI2 S I2 VSS VSS nfet L=0.060u W=0.240u M=1
MNI1A CO I1 VSS VSS nfet L=0.060u W=0.240u M=1
MNCI3 I2 CI N1N505 VSS nfet L=0.060u W=0.220u M=1
MNA3 N1N505 A N1N479 VSS nfet L=0.060u W=0.220u M=1
MNB3 N1N479 B VSS VSS nfet L=0.060u W=0.220u M=1
MNCI2 N1N478 CI VSS VSS nfet L=0.060u W=0.270u M=1
MNI1 I2 I1 N1N478 VSS nfet L=0.060u W=0.270u M=1
MNB2 N1N478 B VSS VSS nfet L=0.060u W=0.270u M=1
MNA2 N1N478 A VSS VSS nfet L=0.060u W=0.270u M=1
MNB1 N1N350 B VSS VSS nfet L=0.060u W=0.260u M=1
MNA1 I1 A N1N350 VSS nfet L=0.060u W=0.260u M=1
MNA N1N235 A VSS VSS nfet L=0.060u W=0.260u M=1
MNCI I1 CI N1N235 VSS nfet L=0.060u W=0.260u M=1
MNB N1N235 B VSS VSS nfet L=0.060u W=0.260u M=1
.ENDS
*-----------------------------------------------------------------------
*      Cell        : SEN_ADDF_1
*      Description : "Full adder"
*      Equation    : S=(A^B)^CI:CO=(A&B)|(A&CI)|(B&CI)
*      Version     : 5.6
*      Created     : 2007/10/29 19:10:27
*
.SUBCKT SEN_ADDF_1 S CO  A B CI
MPI2 S I2 VDD VDD pfet L=0.06u W=0.6u M=1
MPI1A CO I1 VDD VDD pfet L=0.06u W=0.6u M=1
MPCI3 I2 CI N1N549 VDD pfet L=0.06u W=0.33u M=1
MPA3 N1N549 A N1N547 VDD pfet L=0.06u W=0.33u M=1
MPB3 N1N547 B VDD VDD pfet L=0.06u W=0.33u M=1
MPI1 I2 I1 N1N476 VDD pfet L=0.06u W=0.33u M=1
MPCI2 N1N476 CI VDD VDD pfet L=0.06u W=0.375u M=1
MPB2 N1N476 B VDD VDD pfet L=0.06u W=0.375u M=1
MPA2 N1N476 A VDD VDD pfet L=0.06u W=0.375u M=1
MPA1 I1 A N1N518 VDD pfet L=0.06u W=0.295u M=1
MPB1 N1N518 B VDD VDD pfet L=0.06u W=0.295u M=1
MPCI I1 CI N1N327 VDD pfet L=0.06u W=0.295u M=1
MPA N1N327 A VDD VDD pfet L=0.06u W=0.295u M=1
MPB N1N327 B VDD VDD pfet L=0.06u W=0.295u M=1
MNI2 S I2 VSS VSS nfet L=0.06u W=0.48u M=1
MNI1A CO I1 VSS VSS nfet L=0.06u W=0.48u M=1
MNCI3 I2 CI N1N505 VSS nfet L=0.06u W=0.24u M=1
MNA3 N1N505 A N1N479 VSS nfet L=0.06u W=0.24u M=1
MNB3 N1N479 B VSS VSS nfet L=0.06u W=0.24u M=1
MNCI2 N1N478 CI VSS VSS nfet L=0.06u W=0.32u M=1
MNI1 I2 I1 N1N478 VSS nfet L=0.06u W=0.28u M=1
MNB2 N1N478 B VSS VSS nfet L=0.06u W=0.32u M=1
MNA2 N1N478 A VSS VSS nfet L=0.06u W=0.32u M=1
MNB1 N1N350 B VSS VSS nfet L=0.06u W=0.25u M=1
MNA1 I1 A N1N350 VSS nfet L=0.06u W=0.25u M=1
MNA N1N235 A VSS VSS nfet L=0.06u W=0.25u M=1
MNCI I1 CI N1N235 VSS nfet L=0.06u W=0.25u M=1
MNB N1N235 B VSS VSS nfet L=0.06u W=0.25u M=1
.ENDS
*-----------------------------------------------------------------------
*      Cell        : SEN_ADDF_2
*      Description : "Full adder"
*      Equation    : S=(A^B)^CI:CO=(A&B)|(A&CI)|(B&CI)
*      Version     : 5.6
*      Created     : 2007/10/29 19:10:27
*
.SUBCKT SEN_ADDF_2 S CO  A B CI
MPI2 S I2 VDD VDD pfet L=0.06u W=0.6u M=2
MPI1A CO I1 VDD VDD pfet L=0.06u W=0.6u M=2
MPCI3 I2 CI N1N549 VDD pfet L=0.06u W=0.33u M=2
MPA3 N1N549 A N1N547 VDD pfet L=0.06u W=0.33u M=2
MPB3 N1N547 B VDD VDD pfet L=0.06u W=0.33u M=2
MPI1 I2 I1 N1N476 VDD pfet L=0.06u W=0.33u M=2
MPCI2 N1N476 CI VDD VDD pfet L=0.06u W=0.375u M=2
MPB2 N1N476 B VDD VDD pfet L=0.06u W=0.375u M=2
MPA2 N1N476 A VDD VDD pfet L=0.06u W=0.375u M=2
MPA1 I1 A N1N518 VDD pfet L=0.06u W=0.59u M=1
MPB1 N1N518 B VDD VDD pfet L=0.06u W=0.59u M=1
MPCI I1 CI N1N327 VDD pfet L=0.06u W=0.59u M=1
MPA N1N327 A VDD VDD pfet L=0.06u W=0.59u M=1
MPB N1N327 B VDD VDD pfet L=0.06u W=0.59u M=1
MNI2 S I2 VSS VSS nfet L=0.06u W=0.48u M=2
MNI1A CO I1 VSS VSS nfet L=0.06u W=0.48u M=2
MNCI3 I2 CI N1N505 VSS nfet L=0.06u W=0.48u M=1
MNA3 N1N505 A N1N479 VSS nfet L=0.06u W=0.48u M=1
MNB3 N1N479 B VSS VSS nfet L=0.06u W=0.48u M=1
MNCI2 N1N478 CI VSS VSS nfet L=0.06u W=0.32u M=2
MNI1 I2 I1 N1N478 VSS nfet L=0.06u W=0.28u M=2
MNB2 N1N478 B VSS VSS nfet L=0.06u W=0.32u M=2
MNA2 N1N478 A VSS VSS nfet L=0.06u W=0.32u M=2
MNB1 N1N350 B VSS VSS nfet L=0.06u W=0.48u M=1
MNA1 I1 A N1N350 VSS nfet L=0.06u W=0.48u M=1
MNA N1N235 A VSS VSS nfet L=0.06u W=0.48u M=1
MNCI I1 CI N1N235 VSS nfet L=0.06u W=0.48u M=1
MNB N1N235 B VSS VSS nfet L=0.06u W=0.48u M=1
.ENDS
*-----------------------------------------------------------------------
*      Cell        : SEN_ADDF_4
*      Description : "Full adder"
*      Equation    : S=(A^B)^CI:CO=(A&B)|(A&CI)|(B&CI)
*      Version     : 5.6
*      Created     : 2007/10/29 19:10:27
*
.SUBCKT SEN_ADDF_4 S CO  A B CI
MPI2 S I2 VDD VDD pfet L=0.06u W=0.6u M=4
MPI1A CO I1 VDD VDD pfet L=0.06u W=0.6u M=4
MPCI3 I2 CI N1N549 VDD pfet L=0.06u W=0.6u M=2
MPA3 N1N549 A N1N547 VDD pfet L=0.06u W=0.6u M=2
MPB3 N1N547 B VDD VDD pfet L=0.06u W=0.6u M=2
MPI1 I2 I1 N1N476 VDD pfet L=0.06u W=0.6u M=2
MPCI2 N1N476 CI VDD VDD pfet L=0.06u W=0.5u M=3
MPB2 N1N476 B VDD VDD pfet L=0.06u W=0.5u M=3
MPA2 N1N476 A VDD VDD pfet L=0.06u W=0.5u M=3
MPA1 I1 A N1N518 VDD pfet L=0.06u W=0.59u M=2
MPB1 N1N518 B VDD VDD pfet L=0.06u W=0.59u M=2
MPCI I1 CI N1N327 VDD pfet L=0.06u W=0.59u M=2
MPA N1N327 A VDD VDD pfet L=0.06u W=0.59u M=2
MPB N1N327 B VDD VDD pfet L=0.06u W=0.59u M=2
MNI2 S I2 VSS VSS nfet L=0.06u W=0.48u M=4
MNI1A CO I1 VSS VSS nfet L=0.06u W=0.48u M=4
MNCI3 I2 CI N1N505 VSS nfet L=0.06u W=0.48u M=2
MNA3 N1N505 A N1N479 VSS nfet L=0.06u W=0.48u M=2
MNB3 N1N479 B VSS VSS nfet L=0.06u W=0.48u M=2
MNCI2 N1N478 CI VSS VSS nfet L=0.06u W=0.425u M=3
MNI1 I2 I1 N1N478 VSS nfet L=0.06u W=0.375u M=3
MNB2 N1N478 B VSS VSS nfet L=0.06u W=0.425u M=3
MNA2 N1N478 A VSS VSS nfet L=0.06u W=0.425u M=3
MNB1 N1N350 B VSS VSS nfet L=0.06u W=0.48u M=2
MNA1 I1 A N1N350 VSS nfet L=0.06u W=0.48u M=2
MNA N1N235 A VSS VSS nfet L=0.06u W=0.48u M=2
MNCI I1 CI N1N235 VSS nfet L=0.06u W=0.48u M=2
MNB N1N235 B VSS VSS nfet L=0.06u W=0.48u M=2
.ENDS
*-----------------------------------------------------------------------
*      Cell        : SEN_ADDF_P1_1
*      Description : "Full adder"
*      Equation    : S=(A^B)^CI:CO=(A&B)|(A&CI)|(B&CI)
*      Version     : 5.6
*      Created     : 2007/10/29 19:10:27
*
.SUBCKT SEN_ADDF_P1_1 S CO  A B CI
MNI6 N3 I6 VSS VSS nfet L=0.06u W=0.47u M=1
MNI4 I1 I4 N3 VSS nfet L=0.06u W=0.47u M=1
MNI5 I6 I5 VSS VSS nfet L=0.06u W=0.46u M=1
MNCINB I3 CIN I99 VSS nfet L=0.06u W=0.28u M=1
MNCIB I2 CI I99 VSS nfet L=0.06u W=0.28u M=1
MNI2 I3 I2 VSS VSS nfet L=0.06u W=0.46u M=1
MNI1 I2 I1 VSS VSS nfet L=0.06u W=0.46u M=1
MNB3 I5 B VSS VSS nfet L=0.06u W=0.47u M=1
MNB2 N1 B VSS VSS nfet L=0.06u W=0.47u M=1
MNA2 I4 A N1 VSS nfet L=0.06u W=0.47u M=1
MNCI CIN CI VSS VSS nfet L=0.06u W=0.15u M=1
MNA3 I5 A VSS VSS nfet L=0.06u W=0.47u M=1
MN98 CO I98 VSS VSS nfet L=0.06u W=0.48u M=1
MN99 S I99 VSS VSS nfet L=0.06u W=0.48u M=1
MNCIA I5 CI I98 VSS nfet L=0.06u W=0.28u M=1
MNCINA I4 CIN I98 VSS nfet L=0.06u W=0.28u M=1
MPI6 I1 I6 VDD VDD pfet L=0.06u W=0.59u M=1
MPI4 I1 I4 VDD VDD pfet L=0.06u W=0.59u M=1
MPI5 I6 I5 VDD VDD pfet L=0.06u W=0.59u M=1
MPCIB I99 CI I3 VDD pfet L=0.06u W=0.25u M=1
MPCINB I99 CIN I2 VDD pfet L=0.06u W=0.25u M=1
MPCIA I98 CI I4 VDD pfet L=0.06u W=0.25u M=1
MPI2 I3 I2 VDD VDD pfet L=0.06u W=0.58u M=1
MPI1 I2 I1 VDD VDD pfet L=0.06u W=0.58u M=1
MPB3 I5 B N2 VDD pfet L=0.06u W=0.59u M=1
MPA3 N2 A VDD VDD pfet L=0.06u W=0.59u M=1
MPB2 I4 B VDD VDD pfet L=0.06u W=0.55u M=1
MPA2 I4 A VDD VDD pfet L=0.06u W=0.55u M=1
MPCI CIN CI VDD VDD pfet L=0.06u W=0.15u M=1
MP98 CO I98 VDD VDD pfet L=0.06u W=0.6u M=1
MP99 S I99 VDD VDD pfet L=0.06u W=0.6u M=1
MPCINA I98 CIN I5 VDD pfet L=0.06u W=0.25u M=1
.ENDS
*-----------------------------------------------------------------------
*      Cell        : SEN_ADDF_P1_2
*      Description : "Full adder"
*      Equation    : S=(A^B)^CI:CO=(A&B)|(A&CI)|(B&CI)
*      Version     : 5.6
*      Created     : 2007/10/29 19:10:27
*
.SUBCKT SEN_ADDF_P1_2 S CO  A B CI
MNI6 N3 I6 VSS VSS nfet L=0.06u W=0.47u M=2
MNI4 I1 I4 N3 VSS nfet L=0.06u W=0.47u M=2
MNI5 I6 I5 VSS VSS nfet L=0.06u W=0.46u M=2
MNCINB I3 CIN I99 VSS nfet L=0.06u W=0.28u M=2
MNCIB I2 CI I99 VSS nfet L=0.06u W=0.28u M=2
MNI2 I3 I2 VSS VSS nfet L=0.06u W=0.46u M=2
MNI1 I2 I1 VSS VSS nfet L=0.06u W=0.46u M=2
MNB3 I5 B VSS VSS nfet L=0.06u W=0.47u M=2
MNB2 N1 B VSS VSS nfet L=0.06u W=0.47u M=2
MNA2 I4 A N1 VSS nfet L=0.06u W=0.47u M=2
MNCI CIN CI VSS VSS nfet L=0.06u W=0.3u M=1
MNA3 I5 A VSS VSS nfet L=0.06u W=0.47u M=2
MN98 CO I98 VSS VSS nfet L=0.06u W=0.48u M=2
MN99 S I99 VSS VSS nfet L=0.06u W=0.48u M=2
MNCIA I5 CI I98 VSS nfet L=0.06u W=0.28u M=2
MNCINA I4 CIN I98 VSS nfet L=0.06u W=0.28u M=2
MPI6 I1 I6 VDD VDD pfet L=0.06u W=0.59u M=2
MPI4 I1 I4 VDD VDD pfet L=0.06u W=0.59u M=2
MPI5 I6 I5 VDD VDD pfet L=0.06u W=0.59u M=2
MPCIB I99 CI I3 VDD pfet L=0.06u W=0.5u M=1
MPCINB I99 CIN I2 VDD pfet L=0.06u W=0.5u M=1
MPCIA I98 CI I4 VDD pfet L=0.06u W=0.5u M=1
MPI2 I3 I2 VDD VDD pfet L=0.06u W=0.58u M=2
MPI1 I2 I1 VDD VDD pfet L=0.06u W=0.58u M=2
MPB3 I5 B N2 VDD pfet L=0.06u W=0.59u M=2
MPA3 N2 A VDD VDD pfet L=0.06u W=0.59u M=2
MPB2 I4 B VDD VDD pfet L=0.06u W=0.55u M=2
MPA2 I4 A VDD VDD pfet L=0.06u W=0.55u M=2
MPCI CIN CI VDD VDD pfet L=0.06u W=0.3u M=1
MP98 CO I98 VDD VDD pfet L=0.06u W=0.6u M=2
MP99 S I99 VDD VDD pfet L=0.06u W=0.6u M=2
MPCINA I98 CIN I5 VDD pfet L=0.06u W=0.5u M=1
.ENDS
*-----------------------------------------------------------------------
*      Cell        : SEN_ADDF_P1_3
*      Description : "Full adder"
*      Equation    : S=(A^B)^CI:CO=(A&B)|(A&CI)|(B&CI)
*      Version     : 5.6
*      Created     : 2007/10/29 19:10:27
*
.SUBCKT SEN_ADDF_P1_3 S CO  A B CI
MNI6 N3 I6 VSS VSS nfet L=0.060u W=0.480u M=1
MNI4 I1 I4 N3 VSS nfet L=0.060u W=0.480u M=1
MNI5 I6 I5 VSS VSS nfet L=0.060u W=0.480u M=1
MNCINB I3 CIN I99 VSS nfet L=0.060u W=0.480u M=1
MNCIB I2 CI I99 VSS nfet L=0.060u W=0.480u M=1
MNI2 I3 I2 VSS VSS nfet L=0.060u W=0.480u M=1
MNI1 I2 I1 VSS VSS nfet L=0.060u W=0.480u M=1
MNB3 I5 B VSS VSS nfet L=0.060u W=0.305u M=2
MNB2 N1 B VSS VSS nfet L=0.060u W=0.435u M=2
MNA2 I4 A N1 VSS nfet L=0.060u W=0.435u M=2
MNCI CIN CI VSS VSS nfet L=0.060u W=0.480u M=1
MNA3 I5 A VSS VSS nfet L=0.060u W=0.305u M=2
MN98 CO I98 VSS VSS nfet L=0.060u W=0.480u M=3
MN99 S I99 VSS VSS nfet L=0.060u W=0.480u M=3
MNCIA I5 CI I98 VSS nfet L=0.060u W=0.480u M=1
MNCINA I4 CIN I98 VSS nfet L=0.060u W=0.480u M=1
MPI6 I1 I6 VDD VDD pfet L=0.060u W=0.500u M=1
MPI4 I1 I4 VDD VDD pfet L=0.060u W=0.500u M=1
MPI5 I6 I5 VDD VDD pfet L=0.060u W=0.535u M=1
MPCIB I99 CI I3 VDD pfet L=0.060u W=0.490u M=1
MPCINB I99 CIN I2 VDD pfet L=0.060u W=0.490u M=1
MPCIA I98 CI I4 VDD pfet L=0.060u W=0.490u M=1
MPI2 I3 I2 VDD VDD pfet L=0.060u W=0.600u M=1
MPI1 I2 I1 VDD VDD pfet L=0.060u W=0.600u M=1
MPB3 I5 B N2 VDD pfet L=0.060u W=0.595u M=2
MPA3 N2 A VDD VDD pfet L=0.060u W=0.595u M=2
MPB2 I4 B VDD VDD pfet L=0.060u W=0.365u M=2
MPA2 I4 A VDD VDD pfet L=0.060u W=0.365u M=2
MPCI CIN CI VDD VDD pfet L=0.060u W=0.455u M=1
MP98 CO I98 VDD VDD pfet L=0.060u W=0.600u M=3
MP99 S I99 VDD VDD pfet L=0.060u W=0.600u M=3
MPCINA I98 CIN I5 VDD pfet L=0.060u W=0.490u M=1
.ENDS
*-----------------------------------------------------------------------
*      Cell        : SEN_ADDF_P1_4
*      Description : "Full adder"
*      Equation    : S=(A^B)^CI:CO=(A&B)|(A&CI)|(B&CI)
*      Version     : 5.6
*      Created     : 2007/10/29 19:10:27
*
.SUBCKT SEN_ADDF_P1_4 S CO  A B CI
MNI6 N3 I6 VSS VSS nfet L=0.06u W=0.47u M=4
MNI4 I1 I4 N3 VSS nfet L=0.06u W=0.47u M=4
MNI5 I6 I5 VSS VSS nfet L=0.06u W=0.46u M=4
MNCINB I3 CIN I99 VSS nfet L=0.06u W=0.375u M=3
MNCIB I2 CI I99 VSS nfet L=0.06u W=0.375u M=3
MNI2 I3 I2 VSS VSS nfet L=0.06u W=0.46u M=4
MNI1 I2 I1 VSS VSS nfet L=0.06u W=0.46u M=4
MNB3 I5 B VSS VSS nfet L=0.06u W=0.47u M=4
MNB2 N1 B VSS VSS nfet L=0.06u W=0.47u M=4
MNA2 I4 A N1 VSS nfet L=0.06u W=0.47u M=4
MNCI CIN CI VSS VSS nfet L=0.06u W=0.3u M=2
MNA3 I5 A VSS VSS nfet L=0.06u W=0.47u M=4
MN98 CO I98 VSS VSS nfet L=0.06u W=0.48u M=4
MN99 S I99 VSS VSS nfet L=0.06u W=0.48u M=4
MNCIA I5 CI I98 VSS nfet L=0.06u W=0.375u M=3
MNCINA I4 CIN I98 VSS nfet L=0.06u W=0.375u M=3
MPI6 I1 I6 VDD VDD pfet L=0.06u W=0.59u M=4
MPI4 I1 I4 VDD VDD pfet L=0.06u W=0.59u M=4
MPI5 I6 I5 VDD VDD pfet L=0.06u W=0.59u M=4
MPCIB I99 CI I3 VDD pfet L=0.06u W=0.5u M=2
MPCINB I99 CIN I2 VDD pfet L=0.06u W=0.5u M=2
MPCIA I98 CI I4 VDD pfet L=0.06u W=0.5u M=2
MPI2 I3 I2 VDD VDD pfet L=0.06u W=0.58u M=4
MPI1 I2 I1 VDD VDD pfet L=0.06u W=0.58u M=4
MPB3 I5 B N2 VDD pfet L=0.06u W=0.59u M=4
MPA3 N2 A VDD VDD pfet L=0.06u W=0.59u M=4
MPB2 I4 B VDD VDD pfet L=0.06u W=0.55u M=4
MPA2 I4 A VDD VDD pfet L=0.06u W=0.55u M=4
MPCI CIN CI VDD VDD pfet L=0.06u W=0.6u M=1
MP98 CO I98 VDD VDD pfet L=0.06u W=0.6u M=4
MP99 S I99 VDD VDD pfet L=0.06u W=0.6u M=4
MPCINA I98 CIN I5 VDD pfet L=0.06u W=0.5u M=2
.ENDS
*-----------------------------------------------------------------------
*      Cell        : SEN_ADDH_0P5
*      Description : "Half adder"
*      Equation    : S=A^B:CO=A&B
*      Version     : 5.6
*      Created     : 2007/10/29 19:10:27
*
.SUBCKT SEN_ADDH_0P5 S CO  A B
MP98 CO I1 VDD VDD pfet L=0.060u W=0.300u M=1
MP99 S I2 VDD VDD pfet L=0.060u W=0.300u M=1
MPB1 N1N352 B VDD VDD pfet L=0.060u W=0.330u M=1
MPA1 I2 A N1N352 VDD pfet L=0.060u W=0.330u M=1
MPB I1 B VDD VDD pfet L=0.060u W=0.260u M=1
MPA I1 A VDD VDD pfet L=0.060u W=0.260u M=1
MPI1 I2 I1 VDD VDD pfet L=0.060u W=0.330u M=1
MN98 CO I1 VSS VSS nfet L=0.060u W=0.240u M=1
MN99 S I2 VSS VSS nfet L=0.060u W=0.240u M=1
MNA1 N1N322 A VSS VSS nfet L=0.060u W=0.275u M=1
MNB1 N1N322 B VSS VSS nfet L=0.060u W=0.275u M=1
MNA I1 A N1 VSS nfet L=0.060u W=0.275u M=1
MNB N1 B VSS VSS nfet L=0.060u W=0.275u M=1
MNI1 I2 I1 N1N322 VSS nfet L=0.060u W=0.275u M=1
.ENDS
*-----------------------------------------------------------------------
*      Cell        : SEN_ADDH_1
*      Description : "Half adder"
*      Equation    : S=A^B:CO=A&B
*      Version     : 5.6
*      Created     : 2007/10/29 19:10:27
*
.SUBCKT SEN_ADDH_1 S CO  A B
MP98 CO I1 VDD VDD pfet L=0.06u W=0.6u M=1
MP99 S I2 VDD VDD pfet L=0.06u W=0.6u M=1
MPB1 N1N352 B VDD VDD pfet L=0.06u W=0.36u M=1
MPA1 I2 A N1N352 VDD pfet L=0.06u W=0.36u M=1
MPB I1 B VDD VDD pfet L=0.06u W=0.32u M=1
MPA I1 A VDD VDD pfet L=0.06u W=0.32u M=1
MPI1 I2 I1 VDD VDD pfet L=0.06u W=0.36u M=1
MN98 CO I1 VSS VSS nfet L=0.06u W=0.48u M=1
MN99 S I2 VSS VSS nfet L=0.06u W=0.48u M=1
MNA1 N1N322 A VSS VSS nfet L=0.06u W=0.32u M=1
MNB1 N1N322 B VSS VSS nfet L=0.06u W=0.32u M=1
MNA I1 A N1 VSS nfet L=0.06u W=0.32u M=1
MNB N1 B VSS VSS nfet L=0.06u W=0.32u M=1
MNI1 I2 I1 N1N322 VSS nfet L=0.06u W=0.32u M=1
.ENDS
*-----------------------------------------------------------------------
*      Cell        : SEN_ADDH_2
*      Description : "Half adder"
*      Equation    : S=A^B:CO=A&B
*      Version     : 5.6
*      Created     : 2007/10/29 19:10:27
*
.SUBCKT SEN_ADDH_2 S CO  A B
MP98 CO I1 VDD VDD pfet L=0.06u W=0.6u M=2
MP99 S I2 VDD VDD pfet L=0.06u W=0.6u M=2
MPB1 N1N352 B VDD VDD pfet L=0.06u W=0.36u M=2
MPA1 I2 A N1N352 VDD pfet L=0.06u W=0.36u M=2
MPB I1 B VDD VDD pfet L=0.06u W=0.6u M=1
MPA I1 A VDD VDD pfet L=0.06u W=0.6u M=1
MPI1 I2 I1 VDD VDD pfet L=0.06u W=0.36u M=2
MN98 CO I1 VSS VSS nfet L=0.06u W=0.48u M=2
MN99 S I2 VSS VSS nfet L=0.06u W=0.48u M=2
MNA1 N1N322 A VSS VSS nfet L=0.06u W=0.32u M=2
MNB1 N1N322 B VSS VSS nfet L=0.06u W=0.32u M=2
MNA I1 A N1 VSS nfet L=0.06u W=0.32u M=2
MNB N1 B VSS VSS nfet L=0.06u W=0.32u M=2
MNI1 I2 I1 N1N322 VSS nfet L=0.06u W=0.32u M=2
.ENDS
*-----------------------------------------------------------------------
*      Cell        : SEN_ADDH_4
*      Description : "Half adder"
*      Equation    : S=A^B:CO=A&B
*      Version     : 5.6
*      Created     : 2007/10/29 19:10:27
*
.SUBCKT SEN_ADDH_4 S CO  A B
MP98 CO I1 VDD VDD pfet L=0.06u W=0.6u M=4
MP99 S I2 VDD VDD pfet L=0.06u W=0.6u M=4
MPB1 N1N352 B VDD VDD pfet L=0.06u W=0.48u M=3
MPA1 I2 A N1N352 VDD pfet L=0.06u W=0.48u M=3
MPB I1 B VDD VDD pfet L=0.06u W=0.6u M=2
MPA I1 A VDD VDD pfet L=0.06u W=0.6u M=2
MPI1 I2 I1 VDD VDD pfet L=0.06u W=0.48u M=3
MN98 CO I1 VSS VSS nfet L=0.06u W=0.48u M=4
MN99 S I2 VSS VSS nfet L=0.06u W=0.48u M=4
MNA1 N1N322 A VSS VSS nfet L=0.06u W=0.425u M=3
MNB1 N1N322 B VSS VSS nfet L=0.06u W=0.425u M=3
MNA I1 A N1 VSS nfet L=0.06u W=0.425u M=3
MNB N1 B VSS VSS nfet L=0.06u W=0.425u M=3
MNI1 I2 I1 N1N322 VSS nfet L=0.06u W=0.425u M=3
.ENDS
*-----------------------------------------------------------------------
*      Cell        : SEN_ADDH_D_1
*      Description : "Half adder"
*      Equation    : S=A^B:CO=A&B
*      Version     : 5.6
*      Created     : 2007/10/29 19:10:27
*
.SUBCKT SEN_ADDH_D_1 S CO  A B
MNCO CO CN VSS VSS nfet L=0.060u W=0.480u M=1
MNBNS AT BN S VSS nfet L=0.060u W=0.480u M=1
MNBS AN B S VSS nfet L=0.060u W=0.480u M=1
MNAN AT AN VSS VSS nfet L=0.060u W=0.480u M=1
MNA AN A VSS VSS nfet L=0.060u W=0.480u M=1
MNAC CN A N1 VSS nfet L=0.060u W=0.240u M=1
MNBC N1 B VSS VSS nfet L=0.060u W=0.240u M=1
MNB BN B VSS VSS nfet L=0.060u W=0.220u M=1
MPCO CO CN VDD VDD pfet L=0.060u W=0.600u M=1
MPBS S B AT VDD pfet L=0.060u W=0.420u M=1
MPBNS S BN AN VDD pfet L=0.060u W=0.420u M=1
MPAN AT AN VDD VDD pfet L=0.060u W=0.600u M=1
MPA AN A VDD VDD pfet L=0.060u W=0.600u M=1
MPBC CN B VDD VDD pfet L=0.060u W=0.215u M=1
MPAC CN A VDD VDD pfet L=0.060u W=0.215u M=1
MPB BN B VDD VDD pfet L=0.060u W=0.190u M=1
.ENDS
*-----------------------------------------------------------------------
*      Cell        : SEN_ADDH_D_2
*      Description : "Half adder"
*      Equation    : S=A^B:CO=A&B
*      Version     : 5.6
*      Created     : 2007/10/29 19:10:27
*
.SUBCKT SEN_ADDH_D_2 S CO  A B
MNCO CO CN VSS VSS nfet L=0.060u W=0.480u M=2
MNBNS AT BN S VSS nfet L=0.060u W=0.480u M=2
MNBS AN B S VSS nfet L=0.060u W=0.480u M=2
MNAN AT AN VSS VSS nfet L=0.060u W=0.480u M=2
MNA AN A VSS VSS nfet L=0.060u W=0.480u M=2
MNAC CN A N1 VSS nfet L=0.060u W=0.480u M=1
MNBC N1 B VSS VSS nfet L=0.060u W=0.480u M=1
MNB BN B VSS VSS nfet L=0.060u W=0.290u M=1
MPCO CO CN VDD VDD pfet L=0.060u W=0.600u M=2
MPBS S B AT VDD pfet L=0.060u W=0.420u M=2
MPBNS S BN AN VDD pfet L=0.060u W=0.420u M=2
MPAN AT AN VDD VDD pfet L=0.060u W=0.600u M=2
MPA AN A VDD VDD pfet L=0.060u W=0.600u M=2
MPBC CN B VDD VDD pfet L=0.060u W=0.435u M=1
MPAC CN A VDD VDD pfet L=0.060u W=0.435u M=1
MPB BN B VDD VDD pfet L=0.060u W=0.385u M=1
.ENDS
*-----------------------------------------------------------------------
*      Cell        : SEN_ADDH_D_3
*      Description : "Half adder"
*      Equation    : S=A^B:CO=A&B
*      Version     : 5.6
*      Created     : 2007/10/29 19:10:27
*
.SUBCKT SEN_ADDH_D_3 S CO  A B
MNCO CO CN VSS VSS nfet L=0.060u W=0.480u M=3
MNBNS AT BN S VSS nfet L=0.060u W=0.480u M=3
MNBS AN B S VSS nfet L=0.060u W=0.480u M=3
MNAN AT AN VSS VSS nfet L=0.060u W=0.480u M=3
MNA AN A VSS VSS nfet L=0.060u W=0.480u M=3
MNAC CN A N1 VSS nfet L=0.060u W=0.355u M=2
MNBC N1 B VSS VSS nfet L=0.060u W=0.355u M=2
MNB BN B VSS VSS nfet L=0.060u W=0.435u M=1
MPCO CO CN VDD VDD pfet L=0.060u W=0.600u M=3
MPBS S B AT VDD pfet L=0.060u W=0.420u M=3
MPBNS S BN AN VDD pfet L=0.060u W=0.420u M=3
MPAN AT AN VDD VDD pfet L=0.060u W=0.600u M=3
MPA AN A VDD VDD pfet L=0.060u W=0.600u M=3
MPBC CN B VDD VDD pfet L=0.060u W=0.325u M=2
MPAC CN A VDD VDD pfet L=0.060u W=0.325u M=2
MPB BN B VDD VDD pfet L=0.060u W=0.575u M=1
.ENDS
*-----------------------------------------------------------------------
*      Cell        : SEN_ADDH_D_4
*      Description : "Half adder"
*      Equation    : S=A^B:CO=A&B
*      Version     : 5.6
*      Created     : 2007/10/29 19:10:27
*
.SUBCKT SEN_ADDH_D_4 S CO  A B
MNCO CO CN VSS VSS nfet L=0.060u W=0.480u M=4
MNBNS AT BN S VSS nfet L=0.060u W=0.480u M=4
MNBS AN B S VSS nfet L=0.060u W=0.480u M=4
MNAN AT AN VSS VSS nfet L=0.060u W=0.480u M=4
MNA AN A VSS VSS nfet L=0.060u W=0.480u M=4
MNAC CN A N1 VSS nfet L=0.060u W=0.480u M=2
MNBC N1 B VSS VSS nfet L=0.060u W=0.480u M=2
MNB BN B VSS VSS nfet L=0.060u W=0.290u M=2
MPCO CO CN VDD VDD pfet L=0.060u W=0.600u M=4
MPBS S B AT VDD pfet L=0.060u W=0.560u M=3
MPBNS S BN AN VDD pfet L=0.060u W=0.560u M=3
MPAN AT AN VDD VDD pfet L=0.060u W=0.600u M=4
MPA AN A VDD VDD pfet L=0.060u W=0.600u M=4
MPBC CN B VDD VDD pfet L=0.060u W=0.435u M=2
MPAC CN A VDD VDD pfet L=0.060u W=0.435u M=2
MPB BN B VDD VDD pfet L=0.060u W=0.385u M=2
.ENDS
*-----------------------------------------------------------------------
*      Cell        : SEN_ADDH_D_6
*      Description : "Half adder"
*      Equation    : S=A^B:CO=A&B
*      Version     : 5.6
*      Created     : 2007/10/29 19:10:27
*
.SUBCKT SEN_ADDH_D_6 S CO  A B
MNCO CO CN VSS VSS nfet L=0.060u W=0.480u M=6
MNBNS AT BN S VSS nfet L=0.060u W=0.480u M=6
MNBS AN B S VSS nfet L=0.060u W=0.480u M=6
MNAN AT AN VSS VSS nfet L=0.060u W=0.480u M=6
MNA AN A VSS VSS nfet L=0.060u W=0.480u M=6
MNAC CN A N1 VSS nfet L=0.060u W=0.480u M=3
MNBC N1 B VSS VSS nfet L=0.060u W=0.480u M=3
MNB BN B VSS VSS nfet L=0.060u W=0.435u M=2
MPCO CO CN VDD VDD pfet L=0.060u W=0.600u M=6
MPBS S B AT VDD pfet L=0.060u W=0.505u M=5
MPBNS S BN AN VDD pfet L=0.060u W=0.505u M=5
MPAN AT AN VDD VDD pfet L=0.060u W=0.600u M=6
MPA AN A VDD VDD pfet L=0.060u W=0.600u M=6
MPBC CN B VDD VDD pfet L=0.060u W=0.435u M=3
MPAC CN A VDD VDD pfet L=0.060u W=0.435u M=3
MPB BN B VDD VDD pfet L=0.060u W=0.575u M=2
.ENDS
*-----------------------------------------------------------------------
*      Cell        : SEN_AN2_1